Circuit: * D:\5th SEMESTER\CSE250\LAB\LT SPICE\LAB FILE 1\diodeIV.asc

.OP point found by inspection.

Date: Thu Oct 06 22:33:07 2022
Total elapsed time: 0.349 seconds.

tnom = 27
temp = 27
method = trap
totiter = 20000
traniter = 0
tranpoints = 0
accept = 0
rejected = 0
matrix size = 4
fillins = 0
solver = Normal
Matrix Compiler1: 100 bytes object code size  0.0/0.0/[0.0]
Matrix Compiler2: off  [0.0]/0.1/0.0

